Version 4
SHEET 1 2196 1312
WIRE 992 176 752 176
WIRE 1040 176 992 176
WIRE 752 208 752 176
WIRE 1040 256 1040 176
WIRE 752 320 752 288
WIRE 992 336 960 336
WIRE 864 352 832 352
WIRE 1040 368 1040 352
WIRE 1040 368 960 368
WIRE 1248 368 1248 352
WIRE 1040 400 1040 368
WIRE 1072 400 1040 400
WIRE 1120 400 1072 400
WIRE 1216 400 1200 400
WIRE 1296 400 1280 400
WIRE 1424 400 1424 368
WIRE 1424 400 1296 400
WIRE 832 432 832 352
WIRE 832 432 784 432
WIRE 1040 432 1040 400
WIRE 224 448 192 448
WIRE 352 448 320 448
WIRE 464 448 416 448
WIRE 480 448 464 448
WIRE 624 448 560 448
WIRE 688 448 624 448
WIRE 1296 448 1296 400
WIRE 832 464 784 464
WIRE 464 480 448 480
WIRE 480 480 464 480
WIRE 992 512 960 512
WIRE 832 528 832 464
WIRE 864 528 832 528
WIRE 1424 528 1424 480
WIRE 1488 528 1424 528
WIRE 1040 544 1040 528
WIRE 1040 544 960 544
WIRE 1424 544 1424 528
WIRE -432 576 -432 528
WIRE -224 576 -432 576
WIRE -128 576 -160 576
WIRE -96 576 -128 576
WIRE -432 592 -432 576
WIRE 160 592 128 592
WIRE 320 592 160 592
WIRE 1040 592 1040 544
WIRE 1296 592 1296 512
WIRE -144 608 -160 608
WIRE -96 608 -144 608
WIRE 448 608 448 480
WIRE 448 608 400 608
WIRE 320 624 288 624
WIRE 1424 640 1424 624
WIRE 1488 640 1424 640
WIRE 208 656 192 656
WIRE 288 656 288 624
WIRE 288 656 272 656
WIRE -160 672 -160 608
WIRE -160 672 -208 672
WIRE 1424 688 1424 640
WIRE 128 736 96 736
WIRE 240 736 240 688
WIRE 240 736 192 736
WIRE 1408 768 1392 768
WIRE 976 832 928 832
WIRE 1104 832 1056 832
WIRE 1328 832 1328 768
WIRE 1328 832 1280 832
WIRE 1408 832 1408 768
WIRE 1456 832 1408 832
WIRE -128 880 -128 576
WIRE -80 880 -128 880
WIRE 48 880 16 880
WIRE 80 880 48 880
WIRE 192 880 176 880
WIRE 928 912 928 832
WIRE 928 912 896 912
WIRE 960 912 928 912
WIRE 1104 928 1104 832
WIRE 1104 928 1024 928
WIRE 1168 928 1104 928
WIRE 1280 928 1280 832
WIRE 1280 928 1248 928
WIRE 1344 928 1280 928
WIRE -144 944 -144 608
WIRE -80 944 -144 944
WIRE 48 944 16 944
WIRE 80 944 48 944
WIRE 192 944 176 944
WIRE 928 944 896 944
WIRE 960 944 928 944
WIRE 1456 944 1456 832
WIRE 1456 944 1408 944
WIRE 1488 944 1456 944
WIRE 1600 944 1552 944
WIRE 1344 960 1248 960
WIRE 48 976 48 944
WIRE 192 976 192 944
WIRE 928 976 928 944
WIRE 1248 1040 1248 960
FLAG 1040 592 0
FLAG 752 320 0
FLAG 1296 592 0
FLAG 1424 368 out
FLAG 992 176 in
FLAG 1072 400 sw
FLAG 160 592 vc
FLAG 1424 688 0
FLAG 624 448 pwm
FLAG 1248 352 IL
FLAG 192 656 IL
FLAG 464 448 s
FLAG 464 480 r
FLAG 96 736 pwm
FLAG 240 736 slope
FLAG -432 448 out
FLAG 48 880 vc
FLAG 48 976 0
FLAG 192 976 0
FLAG 192 880 out
FLAG -432 672 0
FLAG 1488 528 shunt+
FLAG 1488 640 shunt-
FLAG 816 912 shunt-
FLAG 816 944 shunt+
FLAG 560 224 5v
FLAG 560 304 0
FLAG 992 896 5v
FLAG 992 960 0
FLAG 928 1056 0
FLAG 1376 912 5v
FLAG 1376 976 0
FLAG 1248 1120 0
FLAG 1680 944 vc
SYMBOL voltage 752 192 R0
WINDOW 0 32 56 VTop 2
WINDOW 3 -32 56 VBottom 2
WINDOW 123 0 0 Left 0
WINDOW 39 0 0 Left 0
SYMATTR InstName V1
SYMATTR Value 10
SYMBOL ind 1104 416 R270
WINDOW 0 32 56 VTop 2
WINDOW 3 5 56 VBottom 2
SYMATTR InstName L1
SYMATTR Value 10µ
SYMBOL cap 1280 448 R0
SYMATTR InstName C1
SYMATTR Value 22µ
SYMATTR SpiceLine Rser=1m
SYMBOL iGD 912 352 R0
SYMATTR InstName X2
SYMBOL iGD 912 528 R0
SYMATTR InstName X3
SYMBOL DEADTIME 736 448 R0
SYMATTR InstName X1
SYMBOL res 1408 384 R0
SYMATTR InstName R1
SYMATTR Value 1
SYMBOL IMON 1248 400 M180
SYMATTR InstName X4
SYMBOL VCO 272 448 R0
SYMATTR InstName X6
SYMBOL POSEDGE 384 448 R0
WINDOW 39 5 51 Bottom 2
SYMATTR InstName X7
SYMBOL CONST 160 448 R0
WINDOW 39 0 51 Bottom 2
SYMATTR SpiceLine K=1Meg
SYMATTR InstName X8
SYMBOL CMP 368 608 R0
SYMATTR InstName X9
SYMBOL SRFF 512 464 R0
SYMATTR InstName X11
SYMBOL SLOPE 160 736 R0
WINDOW 39 92 60 Bottom 2
SYMATTR SpiceLine Se={((5-1)/10u)*0.1}
SYMATTR InstName X12
SYMBOL CONST -240 672 R0
WINDOW 39 0 51 Bottom 2
SYMATTR SpiceLine K=0.8
SYMATTR InstName X14
SYMBOL fra -160 576 R270
WINDOW 0 16 -32 VTop 2
SYMATTR InstName @1
SYMATTR SpiceLine delay=1m fstart=1k fend=100k oct=2 nmax=2 pp0=2m pp1=2m f0=1k f1=10k tavgmin=100µ tsettle=1m
SYMBOL fraprobe -32 960 R0
SYMATTR InstName &1comp
SYMBOL fraprobe 128 960 R0
SYMATTR InstName &1plant
SYMBOL SUM 240 656 R0
SYMATTR InstName X5
SYMBOL iNMOS 1040 304 R0
SYMATTR InstName X10
SYMBOL iNMOS 1040 480 R0
SYMATTR InstName X15
SYMBOL Res -448 432 R0
SYMATTR InstName R2
SYMATTR Value 40k
SYMBOL Res -448 576 R0
SYMATTR InstName R3
SYMATTR Value 10k
SYMBOL OpAmps/AD8605 992 864 R0
SYMATTR InstName U1
SYMBOL Res 1408 528 R0
SYMATTR InstName R4
SYMATTR Value 10m
SYMBOL Voltage 560 208 R0
SYMATTR InstName V2
SYMATTR Value 5
SYMBOL Res 912 896 R90
WINDOW 0 0 56 VBottom 2
WINDOW 3 32 56 VTop 2
SYMATTR InstName R5
SYMATTR Value 1k
SYMBOL Res 912 928 R90
WINDOW 0 0 56 VBottom 2
WINDOW 3 32 56 VTop 2
SYMATTR InstName R6
SYMATTR Value 1k
SYMBOL Res 944 1072 R180
WINDOW 0 36 76 Left 2
WINDOW 3 36 40 Left 2
SYMATTR InstName R9
SYMATTR Value 100k
SYMBOL Res 1072 816 R90
WINDOW 0 0 56 VBottom 2
WINDOW 3 32 56 VTop 2
SYMATTR InstName R7
SYMATTR Value 100k
SYMBOL OpAmps/AD8605 1376 880 R0
SYMATTR InstName U2
SYMBOL schottky 1552 928 R90
WINDOW 0 0 32 VBottom 2
WINDOW 3 32 32 VTop 2
SYMATTR InstName D1
SYMATTR Value BAT54
SYMATTR Description Diode
SYMATTR Type diode
SYMBOL Res 1696 928 R90
WINDOW 0 0 56 VBottom 2
WINDOW 3 32 56 VTop 2
SYMATTR InstName R8
SYMATTR Value 1k
SYMBOL Res 1264 912 R90
WINDOW 0 0 56 VBottom 2
WINDOW 3 32 56 VTop 2
SYMATTR InstName R10
SYMATTR Value 100k
SYMBOL Res 1424 816 R90
WINDOW 0 0 56 VBottom 2
WINDOW 3 32 56 VTop 2
SYMATTR InstName R11
SYMATTR Value 1Meg
SYMBOL Cap 1392 752 R90
WINDOW 0 0 32 VBottom 2
WINDOW 3 32 32 VTop 2
SYMATTR InstName C2
SYMATTR Value 1n
SYMBOL Voltage 1248 1024 R0
SYMATTR InstName V3
SYMATTR Value 1
SYMBOL PowerSim/TYPE2_gm_ea 16 592 R0
WINDOW 39 0 0 Left 0
SYMATTR InstName X13
SYMATTR SpiceLine g=6 fz1=5k fp1=200k vh=5 vl=0
TEXT 224 128 Left 2 !.tran 0 1m 0 200n
TEXT -288 40 Left 6 ;Peak Current Mode Control Buck
TEXT -272 248 Left 2 !;.save V(out) I(L1) V(sw) V(vc)
TEXT 224 160 Left 2 ;.fra
TEXT 1200 48 Left 2 ;2024-12-29
TEXT -280 112 Left 2 ;Vin=5V, Vout=1V/1A
